tests/data/power_flow/pandapower-asymmetric-sym_gen/asym_output.json
{
  "line": [
    {
      "id": 3,
      "p_from": [
        -3310.0464918760513,
        -3310.0464918760417,
        -3310.0464918760576
      ],
      "q_from": [
        -116140.88458851767,
        -116140.88458851764,
        -116140.88458851764
      ],
      "i_from": [
        19.16605664627471,
        19.16605664627471,
        19.16605664627471
      ],
      "p_to": [
        3333.333333883842,
        3333.3333338838415,
        3333.333333883841
      ],
      "q_to": [
        666.6666671057459,
        666.666667105745,
        666.6666671057471
      ],
      "i_to": [
        0.5605558585441723,
        0.5605558585441723,
        0.5605558585441723
      ]
    }
  ],
  "node": [
    {
      "id": 1,
      "u_pu": [
        1.0,
        0.9999999999999999,
        0.9999999999999999
      ],
      "u": [
        6062.177826491071,
        6062.17782649107,
        6062.17782649107
      ],
      "u_angle": [
        -3.5610892456686706e-33,
        -2.0943951023931953,
        2.0943951023931953
      ]
    },
    {
      "id": 2,
      "u_pu": [
        1.0003404892265049,
        1.0003404892265049,
        1.0003404892265049
      ],
      "u": [
        6064.241932730148,
        6064.241932730148,
        6064.241932730148
      ],
      "u_angle": [
        -0.0003792319893482098,
        -2.0947743343825436,
        2.094015870403847
      ]
    }
  ],
  "sym_gen": [
    {
      "id": 6,
      "p": [
        3333.3333333333335,
        3333.3333333333335,
        3333.3333333333335
      ],
      "q": [
        666.6666666666666,
        666.6666666666666,
        666.6666666666666
      ]
    },
    {
      "id": 7,
      "p": [
        0.0,
        0.0,
        0.0
      ],
      "q": [
        0.0,
        0.0,
        0.0
      ]
    }
  ]
}