tests/data/power_flow/pandapower-asymmetric-sym_gen/pgm_asym_output.json
{
  "line": [
    {
      "id": 3,
      "energized": 1,
      "loading": 0.019166056646200875,
      "p_from": [
        -3310.0464913218684,
        -3310.046491323613,
        -3310.046491344633
      ],
      "q_from": [
        -116140.8845880586,
        -116140.88458807128,
        -116140.88458808535
      ],
      "i_from": [
        19.166056646196353,
        19.166056646198445,
        19.166056646200875
      ],
      "s_from": [
        116188.04362184372,
        116188.04362185643,
        116188.04362187113
      ],
      "p_to": [
        3333.3333333387304,
        3333.3333333159153,
        3333.3333333358105
      ],
      "q_to": [
        666.6666666652638,
        666.6666666674965,
        666.6666666854537
      ],
      "i_to": [
        0.560555858441785,
        0.5605558584381678,
        0.5605558584419658
      ],
      "s_to": [
        3399.3463424002075,
        3399.3463423782728,
        3399.346342401303
      ]
    }
  ],
  "node": [
    {
      "id": 1,
      "energized": 1,
      "u_pu": [
        1.0000000000000036,
        1.0000000000000036,
        1.0000000000000033
      ],
      "u": [
        6062.177826491094,
        6062.177826491094,
        6062.177826491092
      ],
      "u_angle": [
        -2.5327040325831256e-16,
        -2.0943951023931957,
        2.094395102393195
      ]
    },
    {
      "id": 2,
      "energized": 1,
      "u_pu": [
        1.0003404892265022,
        1.0003404892265024,
        1.0003404892265022
      ],
      "u": [
        6064.241932730132,
        6064.241932730134,
        6064.241932730132
      ],
      "u_angle": [
        -0.0003792319893483788,
        -2.094774334382544,
        2.094015870403847
      ]
    }
  ],
  "source": [
    {
      "id": 4,
      "energized": 1,
      "p": [
        -3383.1584411974204,
        -6394.131042273043,
        5519.329153568693
      ],
      "q": [
        -118676.11945388025,
        -123019.23066032167,
        -111193.37281918703
      ],
      "i": [
        19.584435781736836,
        20.320303190225015,
        18.364731915241673
      ],
      "s": [
        118724.3323403838,
        123185.29142735826,
        111330.2706060313
      ],
      "pf": [
        -0.028495914649558717,
        -0.05190661131847571,
        0.04957617657375643
      ]
    }
  ],
  "sym_gen": [
    {
      "id": 6,
      "energized": 1,
      "p": [
        3333.333333333333,
        3333.333333333333,
        3333.333333333333
      ],
      "q": [
        666.6666666666666,
        666.6666666666666,
        666.6666666666666
      ],
      "i": [
        0.5605558584409575,
        0.5605558584409573,
        0.5605558584409575
      ],
      "s": [
        3399.34634239519,
        3399.34634239519,
        3399.34634239519
      ],
      "pf": [
        0.9805806756909201,
        0.9805806756909201,
        0.9805806756909201
      ]
    },
    {
      "id": 7,
      "energized": 1,
      "p": [
        0.0,
        0.0,
        0.0
      ],
      "q": [
        0.0,
        0.0,
        0.0
      ],
      "i": [
        0.0,
        0.0,
        0.0
      ],
      "s": [
        0.0,
        0.0,
        0.0
      ],
      "pf": [
        0.0,
        0.0,
        0.0
      ]
    }
  ]
}